# MODFLOW2000 Recharge Package
PARAMETER  0
         3        51
         1         1
        18     1.000(10e12.4)                   -1     RECHARGE
  6.9600e-04  6.9600e-04  6.9600e-04  6.9600e-04  6.9600e-04  6.9600e-04  6.9600e-04  6.9600e-04  6.9600e-04  6.9600e-04
  6.9600e-04  6.9600e-04  6.9600e-04  6.9600e-04  6.9600e-04  6.9600e-04  6.9600e-04  6.9600e-04  6.9600e-04  6.9600e-04
  6.9600e-04  6.9600e-04  6.9600e-04  6.9600e-04  6.9600e-04  6.9600e-04  6.9600e-04  6.9600e-04  6.9600e-04  6.9600e-04
  6.9600e-04  6.9600e-04  6.9600e-04  6.9600e-04  6.9600e-04  6.9600e-04  6.9600e-04  6.9600e-04  6.9600e-04  6.9600e-04
  6.9600e-04  6.9600e-04  6.9600e-04  6.9600e-04  6.9600e-04  6.9600e-04  6.9600e-04  6.9600e-04  6.9600e-04  6.9600e-04
  6.9600e-04  6.9600e-04  6.9600e-04  6.9600e-04  6.9600e-04  6.9600e-04  6.9600e-04  6.9600e-04  6.9600e-04  6.9600e-04
  6.9600e-04  6.9600e-04  6.9600e-04  6.9600e-04  6.9600e-04  6.9600e-04  6.9600e-04  6.9600e-04  6.9600e-04  6.9600e-04
  6.9600e-04  6.9600e-04  6.9600e-04  6.9600e-04  6.9600e-04  6.9600e-04  6.9600e-04  6.9600e-04  6.9600e-04  6.9600e-04
  6.9600e-04  6.9600e-04  6.9600e-04  6.9600e-04  6.9600e-04  6.9600e-04  6.9600e-04  6.9600e-04  6.9600e-04  6.9600e-04
  6.9600e-04  6.9600e-04  6.9600e-04  6.9600e-04  6.9600e-04  6.9600e-04  6.9600e-04  6.9600e-04  6.9600e-04  6.9600e-04
